Version 4
SHEET 1 2040 680
WIRE -16 -160 -16 -240
WIRE 96 -160 -16 -160
WIRE 256 -160 160 -160
WIRE 256 -96 256 -160
WIRE -16 -16 -16 -160
WIRE 384 32 288 32
WIRE 464 32 464 -64
WIRE 464 32 384 32
WIRE 544 32 464 32
WIRE 720 32 640 32
WIRE 784 32 720 32
WIRE 976 32 880 32
WIRE -432 64 -560 64
WIRE -176 64 -352 64
WIRE 288 96 288 32
WIRE 288 96 144 96
WIRE 384 96 384 32
WIRE 544 96 544 32
WIRE 640 96 640 32
WIRE 784 96 784 32
WIRE 880 96 880 32
WIRE -176 128 -272 128
WIRE 288 160 144 160
WIRE -432 192 -560 192
WIRE -176 192 -352 192
WIRE 544 224 544 160
WIRE 640 224 640 160
WIRE 640 224 544 224
WIRE 784 224 784 160
WIRE 880 224 880 160
WIRE 880 224 784 224
WIRE 288 304 288 160
WIRE 384 304 384 176
WIRE 384 304 288 304
WIRE 464 304 384 304
WIRE 976 304 976 32
WIRE 976 304 464 304
WIRE 464 400 464 304
WIRE -272 416 -272 128
WIRE -16 416 -16 272
WIRE 720 416 720 32
FLAG -16 416 0
FLAG 256 -96 0
FLAG -272 416 0
FLAG 720 416 0
FLAG -16 -240 3V3
IOPIN -16 -240 In
FLAG -560 64 CAN_RX
IOPIN -560 64 Out
FLAG -560 192 CAN_TX
IOPIN -560 192 In
FLAG 464 -64 CAN_H
IOPIN 464 -64 Out
FLAG 464 400 CAN_L
IOPIN 464 400 Out
SYMBOL SpecialFunctions\\LTC2875 -16 128 R0
SYMATTR InstName U1
SYMBOL res -336 48 R90
WINDOW 0 0 56 VBottom 2
WINDOW 3 32 56 VTop 2
SYMATTR InstName R1
SYMATTR Value 33R
SYMBOL res -336 176 R90
WINDOW 0 0 56 VBottom 2
WINDOW 3 32 56 VTop 2
SYMATTR InstName R2
SYMATTR Value 33R
SYMBOL cap 160 -176 R90
WINDOW 0 0 32 VBottom 2
WINDOW 3 32 32 VTop 2
SYMATTR InstName C1
SYMATTR Value 0.1µF
SYMBOL TVSdiode 528 96 R0
SYMATTR InstName D1
SYMBOL TVSdiode 624 96 R0
SYMATTR InstName D2
SYMBOL TVSdiode 768 96 R0
SYMATTR InstName D3
SYMBOL TVSdiode 864 96 R0
SYMATTR InstName D4
SYMBOL res 368 80 R0
SYMATTR InstName R3
SYMATTR Value 120R
