Version 4
SHEET 1 880 680
WIRE 512 336 336 336
WIRE 48 352 -32 352
WIRE 400 368 336 368
WIRE 512 384 512 336
WIRE 400 464 400 368
WIRE 512 496 512 464
FLAG 512 496 0
FLAG 400 544 0
SYMBOL water_sensor 192 352 R0
SYMATTR InstName X2
SYMBOL voltage 512 368 R0
WINDOW 123 0 0 Left 0
WINDOW 39 0 0 Left 0
SYMATTR InstName 3V3
SYMATTR Value 3.3
SYMBOL res 384 448 R0
SYMATTR InstName R1
SYMATTR Value 10E6
TEXT -530 520 Left 2 !.tran 10
